#!/bin/bash

# Remember to:
#    module load intel/composer_xe_2015_sp1.0.080
#    module load intel/mkl_libraries_from_composer_xe_2013_sp1
#    module load gcc/4.7.4


echo ""
echo ""
echo ""
echo ""
 

FAST_WInDS=FAST_glin64 


# Parameters 
cores=8
queue=long
time=50:00   


for length in 120 180 240 360 420 480 540 600  # simulation time (sec) 
do     
          #################################################################################################
          ################################################################################################
          # Copying files
          cp -r ../tree_wake/wake_tree_rigid_noDS_60   ../tree_wake/wake_tree_rigid_noDS'_'$length  


          #################################################################################################
          ################################################################################################
          # Modifying files


          ###################     FAST inputs             #######################
          ## Simulation time of FAST (line 6)   
          sed -i "6s/.*/         $length    TMax            - Total run time (s) /" ../tree_wake/wake_tree_rigid_noDS'_'$length/Test24.fst


          ###################     WInDS inputs             #######################

          ## Simulation time (line 4)
          sed -i "4s/.*/         $length     TMax         - Total run time (s). Same as in <...>.fst /" ../tree_wake/wake_tree_rigid_noDS'_'$length/5MW_Baseline/AeroDyn_WInDS.dat
 

          #################################################################################################
          ################################################################################################
          # Submit files
          bsub -q $queue -n $cores -W $time -R select[ib] -R "rusage[mem=500]" -R "span[hosts=1]" -R select[model=Intel_EM64T]  ./$FAST_WInDS  ../tree_wake/wake_tree_rigid_noDS'_'$length/Test24.fst

done

bsub -q short -n $cores -W 3:00 -R select[ib] -R "rusage[mem=100]" -R "span[hosts=1]" -R select[model=Intel_EM64T]  ./$FAST_WInDS  ../tree_wake/wake_tree_rigid_noDS_60/Test24.fst
bsub -q short -n $cores -W 3:00 -R select[ib] -R "rusage[mem=100]" -R "span[hosts=1]" -R select[model=Intel_EM64T]  ./$FAST_WInDS  ../wake/Wake_rigid_noDS_60/Test24.fst




echo ""
echo ""
echo "******** Showng the jobs list *******"
echo "(Wait for 5 sec)"
sleep 5 

bjobs


